<?xml version="1.0" encoding="UTF-8"?>
<!-- generated on 2020-11-26 15:24:17.435320 by routeSampler.py UNKNOWN
  options: -r sampleRoutes.rou.xml <doubleminus>turn-files turns.xml -o output_routes.xml
-->
<routes xmlns:xsi="http://www.w3.org/2001/XMLSchema-instance" xsi:noNamespaceSchemaLocation="http://sumo.dlr.de/xsd/routes_file.xsd">
<!-- begin="0.0" end="3600.0" -->
    <vehicle id="0_0" depart="0.00">
        <route edges="546762080 546762080.264 428766449 2"/>
    </vehicle>
    <vehicle id="0_1" depart="0.59">
        <route edges="546762080 546762080.264 428766449 2"/>
    </vehicle>
    <vehicle id="0_2" depart="1.18">
        <route edges="-262716849#1 74299503#0 74299503#1 433218392#0 433218392#1 433218392#2 433218392#3 433218392#4 433218392#5 765276476#0 765276476#1 765276476#2 765276476#3 433240198#0 433240198#1 -196215076 74725541#2"/>
    </vehicle>
    <vehicle id="0_3" depart="1.77">
        <route edges="-300832372#3 74299501#0 74299501#1 74299501#2 -765276456#0 -223763793#1 -563804230#1 -563624922 -765276381 -765276381.75 -562596187#1"/>
    </vehicle>
    <vehicle id="0_4" depart="2.36">
        <route edges="562596187#0 196546081 196546081.136 563624922 563804230#0 --223763793#1 -74299498#1 -74299530#4 -74299530#3 -74299530#2 -74299530#1 -223762463#2 -415871811#4 -415871811#2 -415871811#1 -40726856#4"/>
    </vehicle>
    <vehicle id="0_5" depart="2.95">
        <route edges="-82120454#7 -82120454#0 --223763793#1 765276456#0 -765276450#1"/>
    </vehicle>
    <vehicle id="0_6" depart="3.53">
        <route edges="1 100014836 428766447 546762079#0 100014828#0 100014828#0.19 303504903 -765276405 -853908159 -853908157#1 -223764287#1 -223764287#0 -765276406#3 -765276406#2 433218385#5 433218385#8 765276415#1 196545953#0 196545953#1 196545953#3 765276452 74211116#0"/>
    </vehicle>
    <vehicle id="0_7" depart="4.12">
        <route edges="-74299533#0 765276397 765276470 765276469 74299476#0 195808403 287998005#1 287998005#2 287998005#3 287998005#4 287998005#5 287998005#6 287998005#7 120569198#1 -120569197#2 -120569197#1 -120569197#0 765276433 765276432 223762500#1 765276428#1 853756163 157855709 196548190#0 196548190#1 196548190#2 196548190#3 323860813#0 323860813#2 765276468#1 765276468#2 323860812#0 765276390#0 547437416 323860811#0 323860811#3 562472638 562472639"/>
    </vehicle>
    <vehicle id="0_8" depart="4.71">
        <route edges="74302237#10 74302237#11 74302237#12 765276421#0 765276421#3 765276421#4 765276421#5 765276421#6 765276421#7 765276421#8 765276421#9 765276422#0 87076617#2 87076617#3 87076617#4 87076617#5 87076617#6 87076617#7 87076617#8 87076617#9 223819558 -276420295#6 -276420295#5 -276420295#4 -276420295#3 -276420295#2 -276420295#0 -87076608#7 -562472638 -323860811#4 -323860811#2 -547437416 -222792475#4 -323860812#1 -765276468#2 -765276468#1 -765276468#0 -323860813#1 -196548190#3 -196548190#2 -196548190#1 -196548190#0 -157855709 -853756163 -765276428#1 -765276428#0 -223762500#0 -765276433 120569197#0 120569197#1 120569197#2 765276382 765276392 74725473#0 74725473#1 765276395 74299513#0 74299513#1 74299513#2 74299513#3 74299513#4 74299513#5 74299513#6 -262716849#3 -74299480#1 -74299480#0"/>
    </vehicle>
    <vehicle id="0_9" depart="5.30">
        <route edges="562596187#0 196546081"/>
    </vehicle>
    <vehicle id="0_10" depart="5.89">
        <route edges="765276485 744182610 765276483 74299496 74288354 433218392#0 433218392#1 433218392#2 74299480#0 74299480#1 262716849#3 262716849#4 262716849#5 262716849#6 433225220 433225221 223816377 223816378#0 765276391 74299516#0 74299516#1 157538704#0 853756162 157855709 196548190#0 196548190#1 196548190#2 196548190#3 323860813#0 323860813#2 765276468#1 765276468#2 323860812#0 765276390#0 547437416"/>
    </vehicle>
    <vehicle id="0_11" depart="6.48">
        <route edges="287998005#7 120569198#1 -120569197#2 -120569197#1 -120569197#0 -300832373#5 -765276438#1 -765276438#0 gneE17 223763106#2 765276406#0 765276406#1 765276406#2 765276406#3 191438529#0"/>
    </vehicle>
    <vehicle id="0_12" depart="7.07">
        <route edges="-74725439#1 -74725439#0 -74725447 -467182459 325782603#0 325782603#1 325782603#2 325782603#4 765276434 -300832373#5 -765276438#1 -765276438#0 gneE17 223763106#2 765276406#0 765276406#1 765276406#2 765276406#3 223764287#0 223764287#1 853908157#0 765276402 765276405 303504902 765276409 765276408 765276407#0 195817620#0 546762080 gneE25 765276412#0 gneE21"/>
    </vehicle>
    <vehicle id="0_13" depart="7.66">
        <route edges="191438529#4 191438529#8 74299525#0 74299525#1 -195808407#4 -195808407#3 -195808407#2 -195808407#1 -195808407#0 -765276406#0 -223763106#2 gneE18 25777042#2 323027296#0 323027296#1 323027296#2 74211129#2 74211129#3 74211129#4"/>
    </vehicle>
    <vehicle id="0_14" depart="8.25">
        <route edges="765276476#3 433240198#0 74288345 74288352#1 74288352#2 -262716851 -262716849#6 -262716849#5 -262716849#4 -262716849#3 -262716849#2 -262716849#1 -262716849#0 262716884 765276486 765276492 765276491 262716906#0 -262716857#3 -262716857#1 -262716857#0 191231074#0 191231074#1 765276498 765276493 191230999 262716857#1"/>
    </vehicle>
    <vehicle id="0_15" depart="8.84">
        <route edges="-262716849#1 74299503#0 74299503#1 433218392#0 433218392#1 433218392#2 433218392#3 433218392#4 433218392#5 765276476#0 765276476#1 765276476#2 765276476#3 433240198#0 433240198#1 -196215076 74725541#2"/>
    </vehicle>
    <vehicle id="0_16" depart="9.42">
        <route edges="74211152#4 -853908157#1 -223764287#1 -223764287#0 -765276406#3 -765276406#2 -765276406#1 -765276406#0 -223763106#2 gneE18 765276438#0 765276438#1 300832373#0 765276433 765276432 223762500#1 765276428#1 853756163 415860232 158014664#0 158014664#1 467182460#0"/>
    </vehicle>
    <vehicle id="0_17" depart="10.01">
        <route edges="562596187#0 196546081 196546081.136 563624922 563804230#0 --223763793#1 -765276374 -765276455#0 -765276453 -74211093#5 -74211099 196545953#3 765276451 765276450#0"/>
    </vehicle>
    <vehicle id="0_18" depart="10.60">
        <route edges="562596187#0 196546081 196546081.136 563624922 563804230#0 --223763793#1 -765276374 -765276455#0 -765276453 -74211093#5 -74211099 196545953#3 765276451 765276450#0"/>
    </vehicle>
    <vehicle id="0_19" depart="11.19">
        <route edges="562596187#0 196546081 196546081.136 563624922 563804230#0 --223763793#1 765276456#0 -765276450#1 719277593 323027296#0 196545953#1"/>
    </vehicle>
    <vehicle id="0_20" depart="11.78">
        <route edges="191438529#1 191438529#2 191438529#4 191438529#8 191438529#9 765276469 74299476#0 195808403 287998005#1 287998005#2 287998005#3 287998005#4 287998005#5 287998005#6 287998005#7 120569198#1 -120569197#2 -120569197#1 -120569197#0 765276433 765276432 223762500#1 765276428#1 853756163 157855709 196548190#0 196548190#1 196548190#2 196548190#3 323860813#0"/>
    </vehicle>
    <vehicle id="0_21" depart="12.37">
        <route edges="251657631#4 196215104 765276475#2 325782704#0 325782704#1 325782704#2 325782704#3 433240198#0 74288345 -74288352#0 765276476#3"/>
    </vehicle>
    <vehicle id="0_22" depart="12.96">
        <route edges="-261439935#1 -261439934 765276493 191230999 262716857#1 262716857#2 262716904#0 765276490 262716882 262716827#0 262716828#2 262716828#4 765276470 765276469 120569912 74299533#0 -74299512#3 -74299512#2"/>
    </vehicle>
    <vehicle id="0_23" depart="13.55">
        <route edges="gneE20 -765276412#1 428766447 546762079#0 100014828#0 100014828#0.19 765276410 765276409 303504929 -325782634 -765276444#3 765276498 765276493 191230999 262716857#1 262716857#2 262716904#0 765276490 765276489 765276488 262716881 262716850 262716849#1 262716849#2 262716849#3 262716849#4 262716849#5 262716849#6 433225220 433225221 196215099#0 74725444#3 74725444#4 74302237#1 74302237#2 74302237#3 74302237#4 74302237#5"/>
    </vehicle>
    <vehicle id="0_24" depart="14.14">
        <route edges="158014664#1 467182460#0 -467182459 325782603#0 325782603#1 325782603#2 325782603#4 765276434 -300832373#5 -765276438#1 -765276438#0 gneE17 223763106#2 765276406#0 765276406#1 765276406#2 765276406#3 223764287#0 223764287#1 853908157#0 765276402 765276405 303504902 765276409 765276408 765276407#0 195817620#0 546762080 546762080.264"/>
    </vehicle>
    <vehicle id="0_25" depart="14.73">
        <route edges="-82120454#7 -82120454#0 --223763793#1 765276456#0 -74299501#2 -74299501#1 -74299501#0 -300832372#2 -300832372#1 -300832372#0 -74299476#6 -74299476#5 -74299476#4 -74299476#3 -74299476#2 -74299476#0 120569912 74299533#0 74299533#1 765276396 765276395 74299513#0 74299513#1 74299513#2 74299513#3 74299513#4 74299513#5 74299513#6 326057966#1 326057966#2 74299490#0 74299490#1 -326057964#1 -262716849#5"/>
    </vehicle>
    <vehicle id="0_26" depart="15.31">
        <route edges="gneE20 -765276412#1 428766447 546762079#0 100014828#0 100014828#0.19 303504903 -765276405 -853908159 -853908157#1 -223764287#1 -223764287#0 -765276406#3 -765276406#2 433218385#5 433218385#8 765276415#1 196545953#0 196545953#1 196545953#3 765276452 765276453 765276387"/>
    </vehicle>
    <vehicle id="0_27" depart="15.90">
        <route edges="gneE20 -765276412#1 gneE26 428766449"/>
    </vehicle>
    <vehicle id="0_28" depart="16.49">
        <route edges="-562472639 -562472638 -323860811#4 -323860811#2 -547437416 -222792475#4 -323860812#1 -765276468#2 -765276468#1 -765276468#0 -323860813#1 -196548190#3 -196548190#2 -196548190#1 -196548190#0 -157855709 -853756162 -157538704#4 -74299516#1 -74299516#0 -765276391 -223816378#1 -223816377 -433240198#2 -433240198#1 -433240198#0 -325782704#4 -325782704#2 -325782704#1 -325782704#0 -765276475#2 -765276475#1 -251657631#7"/>
    </vehicle>
    <vehicle id="0_29" depart="17.08">
        <route edges="-765276412#1 428766447 546762079#0 100014828#0 -gneE19"/>
    </vehicle>
    <vehicle id="0_30" depart="17.67">
        <route edges="74211152#4 -261439935#1 -261439934 765276493 191230999 262716857#1 262716857#2 262716904#0 765276490 765276489 765276488 262716881 262716850"/>
    </vehicle>
    <vehicle id="0_31" depart="18.26">
        <route edges="gneE20 -765276412#1 428766447 546762079#0 100014828#0 100014828#0.19 303504903 -765276405"/>
    </vehicle>
    <vehicle id="0_32" depart="18.85">
        <route edges="100014836 428766447 546762079#0 100014828#0 100014828#0.19 303504903 -765276405 -853908159 -853908157#1 -223764287#1 -223764287#0 191438529#0 191438529#1 191438529#2 191438529#4 191438529#8 191438529#9 765276469 120569912 74299533#0 -74299512#3 -74299512#2 -74299512#1 -74299512#0 -287998005#6 -287998005#5"/>
    </vehicle>
    <vehicle id="0_33" depart="19.44">
        <route edges="765276382 765276392 120569198#0 120569198#1 -120569197#2 -120569197#1 -120569197#0 -765276434 -325782603#4 -325782603#3 -325782603#1 -325782603#0 -765276435 -415871811#4 -415871811#2 -415871811#1 -40726856#4 -765276385 gneE28 -765276381.75 -562596187#1"/>
    </vehicle>
    <vehicle id="0_34" depart="20.03">
        <route edges="562596187#0 196546081 196546081.136 563624922 563804230#0 --223763793#1 765276456#0 765276456#1 gneE15 gneE17 223763106#2 765276406#0 765276406#1 765276406#2 765276406#3 223764287#0 223764287#1 853908157#0 765276402 765276405 303504902 765276409 765276408 765276407#0 765276411 100014828#0"/>
    </vehicle>
    <vehicle id="0_35" depart="20.62">
        <route edges="562596187#0 196546081 196546081.136 563624922 563804230#0 --223763793#1 765276456#0 765276456#1 gneE15 gneE17 223763106#2 765276406#0 765276406#1 765276406#2 765276406#3 223764287#0 223764287#1 853908157#0 765276402 765276405 303504902 765276409 765276408 765276407#0 195817620#0 546762080 546762080.264 428766449"/>
    </vehicle>
    <vehicle id="0_36" depart="21.20">
        <route edges="546762080 gneE25 765276412#0 gneE21"/>
    </vehicle>
    <vehicle id="0_37" depart="21.79">
        <route edges="74302237#5 74302237#6 74302237#7 74302237#8 74302237#9 74302237#10 74302237#11 74302237#12 765276421#0 765276421#3 765276421#4 765276421#5 765276421#6 765276421#7 765276421#8 765276421#9 765276422#0 87076617#2 87076617#3 87076617#4 87076617#5 87076617#6 87076617#7 87076617#8 87076617#9 223819558 -276420295#6 -276420295#5 -276420295#4 -276420295#3 -276420295#2 -276420295#0 -87076608#7 562472639"/>
    </vehicle>
    <vehicle id="0_38" depart="22.38">
        <route edges="1 100014836 428766447 546762079#0 100014828#0 100014828#0.19 303504903 -765276405 -853908159 -853908157#1 -223764287#1 -223764287#0 -765276406#3 -765276406#2 -765276406#1 -765276406#0 -223763106#2 gneE18 gneE16 -765276456#1 -765276456#0 -223763793#1 82120454#0 82120454#1"/>
    </vehicle>
    <vehicle id="0_39" depart="22.97">
        <route edges="74211152#4 -261439935#1 -261439934 765276493 191230999 262716857#1 262716857#2 262716904#0 765276490 262716882 262716827#0 74299509#0 74299509#1 74299484#0 74299484#1 74299484#2 74299513#4 74299513#5"/>
    </vehicle>
    <vehicle id="0_40" depart="23.56">
        <route edges="562596187#0 196546081 196546081.136 563624922 563804230#0 --223763793#1 765276456#0 -765276450#1 -765276450#0 -765276451 -196545953#3 -196545953#2 -196545953#0 765276449#0"/>
    </vehicle>
    <vehicle id="0_41" depart="24.15">
        <route edges="546762080 546762080.264 428766449 2"/>
    </vehicle>
    <vehicle id="0_42" depart="24.74">
        <route edges="195808407#2 195808407#3 195808407#4 -74299525#1 -74299525#0 191438529#9 765276469 120569912 74299533#0 74299533#1 765276396 765276395 74299513#0 74299513#1 74299513#2 74299513#3 74299513#4 74299513#5 74299513#6 326057966#1 326057966#2 326057966#3 433218392#4 433218392#5 765276476#0 765276476#1 765276476#2 765276476#3 -325782704#4 -325782704#2 -325782704#1 -325782704#0 -765276475#2 -765276475#1 -251657631#7"/>
    </vehicle>
    <vehicle id="0_43" depart="25.33">
        <route edges="292731672 -223762500#0 -765276433 -300832373#5 -765276438#1 -765276438#0 gneE16 -765276456#1 -765276456#0 -223763793#1 82120454#0 82120454#1"/>
    </vehicle>
    <vehicle id="0_44" depart="25.92">
        <route edges="-765276412#1 428766447 546762079#0 100014828#0 -gneE19"/>
    </vehicle>
    <vehicle id="0_45" depart="26.51">
        <route edges="1 100014836 428766447 546762079#0 100014828#0 100014828#0.19 303504903 -765276405 -853908159 -853908157#1 -223764287#1 -223764287#0 191438529#0 191438529#1 191438529#2 191438529#4 191438529#8 191438529#9 765276469 74299476#0 195808403 287998005#1 287998005#2 287998005#3 287998005#4"/>
    </vehicle>
    <vehicle id="0_46" depart="27.09">
        <route edges="-196548190#0 -157855709 415860232 158014664#0 158014664#1 493694637 158014660#0 765276373 -415871811#4 -415871811#2 -415871811#1 -40726856#4 -765276385 gneE28 -765276381.75 -562596187#1"/>
    </vehicle>
    <vehicle id="0_47" depart="27.68">
        <route edges="gneE19 100014828#0.19 303504903 -765276405 -853908159 -853908157#1 -223764287#1 -223764287#0 -765276406#3 -765276406#2 -765276406#1 -765276406#0 -223763106#2 gneE18 765276438#0 765276438#1 300832373#0 765276433 765276432 223762500#1 765276428#1 853756163 157855709 196548190#0 196548190#1 196548190#2 196548190#3 323860813#0 323860813#2 765276468#1 765276468#2 323860812#0 765276390#0 547437416"/>
    </vehicle>
    <vehicle id="0_48" depart="28.27">
        <route edges="gneE20 -765276412#1 428766447 546762079#0 100014828#0 100014828#0.19 303504903 -765276405"/>
    </vehicle>
    <vehicle id="0_49" depart="28.86">
        <route edges="300832372#1 300832372#2 74299501#0 74299501#1 74299501#2 765276456#1 gneE15 765276438#0 765276438#1 300832373#0 120569197#0 120569197#1 120569197#2 765276382 74725461#0 74725461#1 74725461#2 74725461#3 223767530 262716852 -195802287#5 -195802287#4 -195802287#3"/>
    </vehicle>
    <vehicle id="0_50" depart="29.45">
        <route edges="-261439935#1 -261439934 765276493 191230999 262716857#1 262716857#2 262716904#0 765276490 262716882 262716827#0 262716828#2 262716828#4 765276470 765276469 120569912 74299533#0 -74299512#3 -74299512#2"/>
    </vehicle>
    <vehicle id="0_51" depart="30.04">
        <route edges="191231069#1 -765276494 -765276444#3 765276498 765276493 191230999 262716857#1 262716857#2 262716904#0 765276490 765276489 765276488 262716881 262716850 262716849#1 262716849#2 262716849#3 326057966#1 326057966#2 326057966#3 433218392#4 433218392#5 765276476#0 765276476#1 765276476#2 765276476#3 -325782704#4 -325782704#2 -325782704#1 -325782704#0 -765276475#2 -765276475#1 -302618653#13"/>
    </vehicle>
    <vehicle id="0_52" depart="30.63">
        <route edges="gneE20 -765276412#1 428766447 546762079#0 100014828#0 100014828#0.19 765276410 765276409 765276408 765276407#0 195817620#0 546762080 546762080.264"/>
    </vehicle>
    <vehicle id="0_53" depart="31.22">
        <route edges="-562472639 -562472638 -323860811#4 -323860811#2 -547437416 -222792475#4 -323860812#1 -765276468#2 -765276468#1 -765276468#0 -323860813#1 -196548190#3 -196548190#2 -196548190#1 -196548190#0 -157855709 -853756163 -765276428#1 -765276428#0 -223762500#0 -765276433 -300832373#5 -765276438#1 -765276438#0 gneE17 223763106#2 765276406#0 765276406#1 765276406#2 765276406#3 223764287#0 223764287#1 853908157#0 765276402 765276405 303504902 765276409 765276408"/>
    </vehicle>
    <vehicle id="0_54" depart="31.81">
        <route edges="433218392#0 433218392#1 433218392#2 74299480#0 74299480#1 -262716849#2 -262716849#1 -262716849#0 262716884 765276486 765276492 765276491 262716875 765276490 262716882 262716827#0 262716828#2 262716828#4 765276470 765276469 74299476#0 74299476#1 74299476#3 74299476#4 74299476#5 74299476#6 -765276438#1 -765276438#0 gneE16 -765276456#1 -765276456#0 -223763793#1 -563804230#1 -563624922 -765276381 -765276381.75 -562596187#1"/>
    </vehicle>
    <vehicle id="0_55" depart="32.40">
        <route edges="gneE17 223763106#2 -765276403 -765276449#1 196545953#0 196545953#1 196545953#3 765276451 765276450#0 765276450#1 -765276456#0 -223763793#1 -563804230#1 -563624922 -765276381 -765276381.75 -562596187#1"/>
    </vehicle>
    <vehicle id="0_56" depart="32.98">
        <route edges="-196545958#1 -74211109#0 -74211129#2 -74211129#1 -74211129#0 -765276445 -765276447#0 -765276500 -74211119#3 -74211119#1 223764287#0 223764287#1 853908157#0 765276402 765276405 303504902 765276409 765276408 765276407#0 195817620#0 546762080 gneE25 765276412#0 gneE21"/>
    </vehicle>
    <vehicle id="0_57" depart="33.57">
        <route edges="-261439935#1 -261439934 765276493 191230999 262716857#1 262716857#2 262716904#0 765276490 262716882 262716827#0 262716828#2 262716828#4 765276470 765276469 120569912 74299533#0 -74299512#3 -74299512#2"/>
    </vehicle>
    <vehicle id="0_58" depart="34.16">
        <route edges="191438529#4 191438529#8 74299525#0 74299525#1 -195808407#4 -195808407#3 -195808407#2 -195808407#1 -195808407#0 -765276406#0 -223763106#2 gneE18 25777042#2 323027296#0 323027296#1 323027296#2 -74211129#1"/>
    </vehicle>
    <vehicle id="0_59" depart="34.75">
        <route edges="765276395 765276393 -74299533#1 -74299533#0 765276397 765276470 -191438529#9 -191438529#8 -191438529#7 -191438529#3 -191438529#1 196546023 223764287#1 853908157#0 765276402 765276405 303504902 765276409 765276408 765276407#0 765276411"/>
    </vehicle>
    <vehicle id="0_60" depart="35.34">
        <route edges="-547437416 -222792475#4 -323860812#1 -765276468#2 -765276468#1 -765276468#0 -323860813#1 -196548190#3 -196548190#2 -196548190#1 -196548190#0 -157855709 -853756163 -765276428#1 -765276428#0 -223762500#0 -765276433 -300832373#5 -765276438#1 -765276438#0 gneE16 -765276456#1 -74299501#2"/>
    </vehicle>
    <vehicle id="0_61" depart="35.93">
        <route edges="-74299490#0 -326057966#2 -326057966#1 -326057966#0 -74299513#5 -74299513#4 -74299513#3 -74299513#2 -74299513#1 -74299513#0 765276393 765276396 -74725473#2 -74725473#0 120569198#0 120569198#1 -120569197#2 -120569197#1 -120569197#0 -765276434 -325782603#4 -325782603#3 -325782603#1 -325782603#0 -765276435 -415871811#4 -415871811#2 -415871811#1 -40726856#4 -765276385 gneE28 -765276381.75 -562596187#1"/>
    </vehicle>
    <vehicle id="0_62" depart="36.52">
        <route edges="302618653#7 302618653#7.1209 196215104 765276475#2 325782704#0 325782704#1 325782704#2 325782704#3 -765276476#3 -765276476#2 -765276476#1 -765276476#0 -433218392#5 -433218392#4 -326057966#3 -326057966#2 -326057966#1 -262716849#3 -262716849#2 -262716849#1 -262716849#0 262716884 765276486 765276492 765276491 262716906#0 -262716857#3 -262716857#1 -262716857#0 191231074#0 191231074#1 765276497#0 191231059 303504924 765276407#0 195817620#0 546762080 gneE25 765276412#0 gneE21"/>
    </vehicle>
    <vehicle id="0_63" depart="37.11">
        <route edges="158014664#1 467182460#0 -467182459 325782603#0 325782603#1 325782603#2 325782603#4 765276434 -300832373#5 -765276438#1 -765276438#0 gneE17 223763106#2 765276406#0 765276406#1 765276406#2 765276406#3 223764287#0 223764287#1 853908157#0 765276402 765276405 303504902 765276409 765276408 765276407#0 195817620#0 546762080 546762080.264 428766449 2"/>
    </vehicle>
    <vehicle id="0_64" depart="37.70">
        <route edges="-74299513#3 -74299513#2 -74299513#1 -74299513#0 765276393 -74299533#1 -74299533#0 765276397 -262716828#4 -262716828#3 -262716828#1 262716883 765276488 765276487 765276486 765276492 765276491 262716906#0 -262716857#3 -262716857#1 -262716857#0 191231074#0 191231074#1 765276498 191231088#0 261439935#0 -853908157#1"/>
    </vehicle>
    <vehicle id="0_65" depart="38.29">
        <route edges="563624922 563804230#0 --223763793#1 765276456#0 765276456#1 gneE15 gneE17 223763106#2 765276406#0 195808407#0"/>
    </vehicle>
    <vehicle id="0_66" depart="38.87">
        <route edges="40726856#0 223953033 415871811#2 415871811#4 -765276373 -158014660#1 -765276474 -158014664#4 -158014664#0 -493694638#1 157855709 196548190#0 196548190#1 196548190#2 196548190#3 323860813#0 323860813#2 765276468#1 765276468#2 323860812#0 765276390#0 547437416"/>
    </vehicle>
    <vehicle id="0_67" depart="39.46">
        <route edges="74211152#4 -261439935#1 -261439934 765276493 191230999 262716857#1 262716857#2 262716904#0 765276490 765276489 765276488 262716881 262716850 262716849#1 262716849#2 262716849#3 262716849#4 262716849#5 262716849#6 433225220 433225221 -433240198#2 -196215076 74725541#2"/>
    </vehicle>
    <vehicle id="0_68" depart="40.05">
        <route edges="-323860811#2 -547437416 -222792475#4 -323860812#1 -765276468#2 -765276468#1 -765276468#0 -323860813#1 -196548190#3 -196548190#2 -196548190#1 -196548190#0 -157855709 -853756162 -157538704#4 -74299516#1 -74299516#0 -765276391 -223816378#1 -223816377 -433240198#2 -433240198#1 -433240198#0 -325782704#4 -325782704#2 -325782704#1 -325782704#0 -765276475#2 -765276475#1 -302618653#13"/>
    </vehicle>
    <vehicle id="0_69" depart="40.64">
        <route edges="gneE20 -765276412#1 gneE26 428766449"/>
    </vehicle>
    <vehicle id="0_70" depart="41.23">
        <route edges="1 100014836 428766447 546762079#0 100014828#0 100014828#0.19 303504903 -765276405 -853908159 -853908157#1 -223764287#1 -223764287#0 191438529#0 191438529#1 191438529#2 191438529#4"/>
    </vehicle>
    <vehicle id="0_71" depart="41.82">
        <route edges="-323860813#1 -196548190#3 -196548190#2 -196548190#1 -196548190#0 -157855709 415860232 158014664#0 158014664#1 493694637 158014660#0 765276373 -415871811#4 -415871811#2 -415871811#1 -40726856#4 -765276385 gneE28 -765276381.75 -562596187#1"/>
    </vehicle>
    <vehicle id="0_72" depart="42.41">
        <route edges="-74725439#0 -74725447 -467182460#1 -158014664#4 -158014664#0 -493694638#1 157855709 196548190#0 196548190#1 196548190#2 196548190#3 323860813#0 323860813#2 765276468#1 765276468#2 323860812#0"/>
    </vehicle>
    <vehicle id="0_73" depart="43.00">
        <route edges="74211129#3 74211177#0 74211177#1 74211177#2 765276508 765276507#0 -74211155 765276455#1 -223763793#1 82120454#0 82120454#1"/>
    </vehicle>
    <vehicle id="0_74" depart="43.59">
        <route edges="-765276505 -765276506#1 -765276506#0 -223762463#2 -765276373 -158014660#1 -765276474 -158014664#4 -158014664#0 -493694638#1 157855709 196548190#0 196548190#1 196548190#2 196548190#3 323860813#0 323860813#2 765276468#1 765276468#2 323860812#0 765276390#0 547437416 323860811#0 323860811#3 562472638 562472639"/>
    </vehicle>
    <vehicle id="0_75" depart="44.18">
        <route edges="287998005#1 287998005#2 287998005#3 287998005#4 287998005#5 287998005#6 287998005#7 120569198#1 -120569197#2 -120569197#1 -120569197#0 -765276434 -325782603#4 -325782603#3 -325782603#1 -325782603#0 -765276435 -415871811#4 -415871811#2 -415871811#1 -40726856#4 -765276385 gneE28 -765276381.75 -562596187#1"/>
    </vehicle>
    <vehicle id="0_76" depart="44.76">
        <route edges="-853756162 -157538704#4 195802287#0 195802287#2 195802287#3 195802287#4 195802287#5 -262716852 -223767530 -74725461#3 -74725461#2 -74725461#1 -74725461#0 765276392 120569198#0 -287998005#7 74299512#0 74299512#1 74299512#2 74299512#3 -74299533#0 765276397 -262716828#4 -262716828#3 -262716828#1 262716883 765276488 765276487 765276486 765276492 765276491 262716906#0 -262716857#3 -262716857#1 -262716857#0 191231074#0 191231074#1 765276497#0 191231059"/>
    </vehicle>
    <vehicle id="0_77" depart="45.35">
        <route edges="gneE20 -765276412#1 428766447 546762079#0 100014828#0 100014828#0.19 303504903 -765276405"/>
    </vehicle>
    <vehicle id="0_78" depart="45.94">
        <route edges="-82120454#0 --223763793#1 765276456#0 765276456#1 gneE15 765276438#0 765276438#1 300832373#0 765276433 765276432 223762500#1 765276428#1 853756163 157855709 196548190#0 196548190#1 196548190#2 196548190#3 323860813#0 323860813#2 765276468#1 765276468#2 323860812#0 765276390#0 547437416 323860811#0 323860811#3 562472638 562472639"/>
    </vehicle>
    <vehicle id="0_79" depart="46.53">
        <route edges="-191231024#12 191231069#1 -765276494 191231059 303504924 765276407#0 765276411 100014828#0 100014828#0.19 303504903 -765276405 -853908159 -74211152#5"/>
    </vehicle>
    <vehicle id="0_80" depart="47.12">
        <route edges="562596187#0 196546081 196546081.136 563624922 563804230#0 --223763793#1 765276456#0 -74299501#2 -74299501#1 -74299501#0 -300832372#2 -300832372#1 -300832372#0 -74299476#6 -74299476#5 -74299476#4 -74299476#3 -74299476#2 -74299476#0 120569912 74299533#0 467178326 719325938"/>
    </vehicle>
    <vehicle id="0_81" depart="47.71">
        <route edges="-82120454#7 -82120454#0 --223763793#1 765276456#0 765276456#1 gneE15 gneE17 223763106#2 765276406#0 765276406#1 765276406#2 765276406#3 223764287#0 223764287#1 853908157#0 765276402 765276405 303504902 765276409 765276408 765276407#0 195817620#0 546762080 gneE25 765276412#0 gneE21"/>
    </vehicle>
    <vehicle id="0_82" depart="48.30">
        <route edges="-853908159 -261439935#1 -261439934 765276493 191231074#0 191231074#1 765276497#0 191231059 303504924 765276407#0 195817620#0 546762080 546762080.264 428766449 2"/>
    </vehicle>
    <vehicle id="0_83" depart="48.89">
        <route edges="-223815021#1 -223767530 -74725461#3 -74725461#2 -74725461#1 -74725461#0 765276392 120569198#0 -287998005#7 74299512#0 74299512#1 74299512#2 74299512#3 -74299533#0 765276397 765276470 -191438529#9 -191438529#8 -191438529#7 -191438529#3 -191438529#1 196546023 223764287#1 853908157#0 765276402 765276405 303504902 765276409 765276408 765276407#0 195817620#0 546762080 gneE25 765276412#0 gneE21"/>
    </vehicle>
    <vehicle id="0_84" depart="49.48">
        <route edges="-765276412#1 428766447 546762079#0 100014828#0 -gneE19"/>
    </vehicle>
    <vehicle id="0_85" depart="50.07">
        <route edges="325782603#0 325782603#1 325782603#2 325782603#4 195803831 765276432 223762500#1 765276428#1 853756163 157855709 196548190#0 196548190#1 196548190#2 196548190#3 323860813#0 323860813#2 765276468#1 765276468#2 323860812#0 765276390#0 547437416 323860811#0"/>
    </vehicle>
    <vehicle id="0_86" depart="50.65">
        <route edges="326057966#3 -433218392#3 -433218392#2 -433218392#1 -433218392#0 -74288354 744182609 744182608 765276481 765276480 765276485 223817232 262716909#0 765276491 262716906#0 -262716857#3 -262716857#1 -262716857#0 191231074#0 191231074#1 765276497#0 765276494"/>
    </vehicle>
    <vehicle id="0_87" depart="51.24">
        <route edges="-223764287#1 -223764287#0 -765276406#3 -765276406#2 -765276406#1 -765276406#0 -223763106#2 gneE18 gneE16 -765276456#1 -765276456#0 -223763793#1 82120454#0 82120454#1"/>
    </vehicle>
    <vehicle id="0_88" depart="51.83">
        <route edges="-562472639 -562472638 -323860811#4 -323860811#2 -547437416 -222792475#4 -323860812#1 -765276468#2 -765276468#1 -765276468#0 -323860813#1 -196548190#3 -196548190#2 -196548190#1 -196548190#0 -157855709 -853756162 -157538704#4 -74299516#1 -74299516#0 -765276391 74302237#0 74302237#1 74302237#2 74302237#3 74302237#4 74302237#5 74302237#6 74302237#7 74302237#8 74302237#9 74302237#10 74302237#11 74302237#12"/>
    </vehicle>
    <vehicle id="0_89" depart="52.42">
        <route edges="546762080 546762080.264 428766449 2"/>
    </vehicle>
    <vehicle id="0_90" depart="53.01">
        <route edges="546762080 546762080.264 428766449 2"/>
    </vehicle>
    <vehicle id="0_91" depart="53.60">
        <route edges="-300832372#2 -300832372#1 -300832372#0 300832373#0 765276433 765276432 223762500#1 765276428#1 853756163 -853756162 -157538704#4 -74299516#1 -74299516#0 -765276391 74302237#0 74302237#1 74302237#2 74302237#3 74302237#4 74302237#5 74302237#6 74302237#7 74302237#8 74302237#9 74302237#10 74302237#11 74302237#12 765276421#0 765276421#3 765276421#4 765276421#5 765276421#6 765276421#7 765276421#8 765276421#9 765276422#0 87076617#2 87076617#3 87076617#4 87076617#5 87076617#6 87076617#7 87076617#8 87076617#9 223819558 -276420295#6"/>
    </vehicle>
    <vehicle id="0_92" depart="54.19">