<configuration>

  <input>
     <net-file value="town.net.xml"/> 
	 <route-files value="town.rou.xml"/>
  </input>

  <time>
     <begin value="0"/>
     <end value="3600"/>
  </time>

  <processing>
     <time-to-teleport value="180"/>
  </processing>	

</configuration>