<?xml version="1.0" encoding="UTF-8"?>

<!-- generated on Thu 26 Nov 2020 03:19:19 PM CET by Eclipse SUMO netedit Version 1.7.0
<configuration xmlns:xsi="http://www.w3.org/2001/XMLSchema-instance" xsi:noNamespaceSchemaLocation="http://sumo.dlr.de/xsd/netconvertConfiguration.xsd">

    <input>
        <sumo-net-file value="gyongyos.net.xml"/>
    </input>

    <output>
        <output-file value="gyongyos.net.xml"/>
        <output.street-names value="true"/>
    </output>

    <processing>
        <geometry.min-radius.fix.railways value="false"/>
        <geometry.max-grade.fix value="false"/>
        <offset.disable-normalization value="true"/>
        <lefthand value="false"/>
    </processing>

    <junctions>
        <no-turnarounds value="true"/>
        <junctions.corner-detail value="5"/>
        <junctions.limit-turn-speed value="5.5"/>
        <rectangular-lane-cut value="false"/>
    </junctions>

    <pedestrian>
        <walkingareas value="false"/>
    </pedestrian>

    <report>
        <aggregate-warnings value="5"/>
    </report>

</configuration>
-->

<net version="1.6" junctionCornerDetail="5" limitTurnSpeed="5.50" xmlns:xsi="http://www.w3.org/2001/XMLSchema-instance" xsi:noNamespaceSchemaLocation="http://sumo.dlr.de/xsd/net_file.xsd">

    <location netOffset="-410745.42,-5287001.07" convBoundary="6278.80,2661.22,11868.93,10082.10" origBoundary="19.807837,47.731437,19.978495,47.837846" projParameter="+proj=utm +zone=34 +ellps=WGS84 +datum=WGS84 +units=m +no_defs"/>

    <type id="highway.bridleway" priority="1" numLanes="1" speed="2.78" allow="pedestrian" oneway="1" width="2.00"/>
    <type id="highway.bus_guideway" priority="1" numLanes="1" speed="27.78" allow="bus" oneway="1"/>
    <type id="highway.cycleway" priority="1" numLanes="1" speed="8.33" allow="bicycle" oneway="0" width="1.00"/>
    <type id="highway.footway" priority="1" numLanes="1" speed="2.78" allow="pedestrian" oneway="1" width="2.00"/>
    <type id="highway.ford" priority="1" numLanes="1" speed="2.78" allow="army" oneway="0"/>
    <type id="highway.living_street" priority="2" numLanes="1" speed="2.78" oneway="0"/>
    <type id="highway.motorway" priority="14" numLanes="2" speed="39.44" allow="private emergency authority army vip passenger hov taxi bus coach delivery truck trailer motorcycle evehicle custom1 custom2" oneway="1"/>
    <type id="highway.motorway_link" priority="9" numLanes="1" speed="22.22" allow="private emergency authority army vip passenger hov taxi bus coach delivery truck trailer motorcycle evehicle custom1 custom2" oneway="1"/>
    <type id="highway.path" priority="1" numLanes="1" speed="2.78" allow="pedestrian bicycle" oneway="1" width="2.00"/>
    <type id="highway.pedestrian" priority="1" numLanes="1" speed="2.78" allow="pedestrian" oneway="1" width="2.00"/>
    <type id="highway.primary" priority="12" numLanes="2" speed="27.78" oneway="0"/>
    <type id="highway.primary_link" priority="7" numLanes="1" speed="22.22" oneway="0"/>
    <type id="highway.raceway" priority="15" numLanes="2" speed="83.33" allow="vip" oneway="0"/>
    <type id="highway.residential" priority="3" numLanes="1" speed="13.89" oneway="0"/>
    <type id="highway.secondary" priority="11" numLanes="1" speed="27.78" oneway="0"/>
    <type id="highway.secondary_link" priority="6" numLanes="1" speed="22.22" oneway="0"/>
    <type id="highway.service" priority="1" numLanes="1" speed="5.56" allow="pedestrian delivery bicycle" oneway="0"/>
    <type id="highway.stairs" priority="1" numLanes="1" speed="1.39" allow="pedestrian" oneway="1" width="2.00"/>
    <type id="highway.step" priority="1" numLanes="1" speed="1.39" allow="pedestrian" oneway="1" width="2.00"/>
    <type id="highway.steps" priority="1" numLanes="1" speed="1.39" allow="pedestrian" oneway="1" width="2.00"/>
    <type id="highway.tertiary" priority="10" numLanes="1" speed="22.22" oneway="0"/>
    <type id="highway.tertiary_link" priority="5" numLanes="1" speed="22.22" oneway="0"/>
    <type id="highway.track" priority="1" numLanes="1" speed="5.56" allow="pedestrian motorcycle moped bicycle" oneway="0"/>
    <type id="highway.trunk" priority="13" numLanes="2" speed="27.78" disallow="pedestrian bicycle tram rail_urban rail rail_electric rail_fast ship" oneway="0"/>
    <type id="highway.trunk_link" priority="8" numLanes="1" speed="22.22" disallow="pedestrian bicycle tram rail_urban rail rail_electric rail_fast ship" oneway="0"/>
    <type id="highway.unclassified" priority="4" numLanes="1" speed="13.89" oneway="0"/>
    <type id="highway.unsurfaced" priority="1" numLanes="1" speed="8.33" oneway="0"/>
    <type id="railway.highspeed" priority="21" numLanes="1" speed="69.44" allow="rail_fast" oneway="1"/>
    <type id="railway.light_rail" priority="19" numLanes="1" speed="27.78" allow="rail_urban" oneway="1"/>
    <type id="railway.preserved" priority="16" numLanes="1" speed="27.78" allow="rail" oneway="1"/>
    <type id="railway.rail" priority="20" numLanes="1" speed="44.44" allow="rail" oneway="1"/>
    <type id="railway.subway" priority="18" numLanes="1" speed="27.78" allow="rail_urban" oneway="1"/>
    <type id="railway.tram" priority="17" numLanes="1" speed="13.89" allow="tram" oneway="1"/>

    <edge id=":1012696871_0" function="internal">
        <lane id=":1012696871_0_0" index="0" speed="22.22" length="0.31" shape="9777.86,9739.09 9777.56,9739.05"/>
    </edge>
    <edge id=":1012696871_1" function="internal">
        <lane id=":1012696871_1_0" index="0" speed="22.22" length="0.28" shape="9777.97,9735.87 9778.25,9735.91"/>
    </edge>
    <edge id=":1012697054_0" function="internal">
        <lane id=":1012697054_0_0" index="0" speed="22.22" length="0.29" shape="9279.67,9459.47 9279.63,9459.76"/>
    </edge>
    <edge id=":1012697054_1" function="internal">
        <lane id=":1012697054_1_0" index="0" speed="22.22" length="0.31" shape="9276.47,9459.28 9276.51,9458.97"/>
    </edge>
    <edge id=":1156339857_0" function="internal">
        <lane id=":1156339857_0_0" index="0" speed="8.81" length="6.70" shape="7829.47,4006.82 7829.93,4004.96 7829.79,4003.62 7829.21,4002.30 7828.32,4000.51"/>
    </edge>
    <edge id=":1156339857_1" function="internal">
        <lane id=":1156339857_1_0" index="0" speed="13.89" length="6.83" shape="7829.47,4006.82 7830.19,4004.93 7830.81,4003.68 7831.55,4002.50 7832.65,4000.79"/>
    </edge>
    <edge id=":1156339931_0" function="internal">
        <lane id=":1156339931_0_0" index="0" speed="13.89" length="8.81" shape="7865.72,4012.43 7865.80,4015.02 7866.13,4016.78 7866.76,4018.48 7867.76,4020.90"/>
    </edge>
    <edge id=":1156339931_1" function="internal">
        <lane id=":1156339931_1_0" index="0" speed="13.89" length="8.91" shape="7865.72,4012.43 7865.62,4015.05 7865.30,4016.83 7864.65,4018.55 7863.58,4020.96"/>
    </edge>
    <edge id=":1156339934_0" function="internal">
        <lane id=":1156339934_0_0" index="0" speed="9.19" length="6.29" shape="7838.80,3990.20 7840.29,3991.32 7841.43,3991.99 7842.68,3992.29 7844.51,3992.29"/>
    </edge>
    <edge id=":1156339934_1" function="internal">
        <lane id=":1156339934_1_0" index="0" speed="10.87" length="8.94" shape="7836.88,3992.76 7839.01,3994.31 7840.65,3995.17 7842.46,3995.50 7845.07,3995.47"/>
    </edge>
    <edge id=":1156339934_2" function="internal">
        <lane id=":1156339934_2_0" index="0" speed="13.89" length="9.59" shape="7835.93,3997.74 7838.41,3996.42 7840.26,3995.80 7842.23,3995.59 7845.07,3995.47"/>
    </edge>
    <edge id=":1351640288_0" function="internal">
        <lane id=":1351640288_0_0" index="0" speed="13.89" length="10.99" shape="8885.86,5499.35 8882.79,5499.11 8880.48,5499.46 8878.20,5500.25 8875.23,5501.32"/>
    </edge>
    <edge id=":1351640288_1" function="internal">
        <lane id=":1351640288_1_0" index="0" speed="7.44" length="8.62" shape="8881.48,5489.68 8882.29,5492.31 8883.38,5494.28 8884.73,5495.57 8886.36,5496.19"/>
    </edge>
    <edge id=":1351640288_2" function="internal">
        <lane id=":1351640288_2_0" index="0" speed="8.44" length="14.78" shape="8881.48,5489.68 8881.85,5493.76 8880.93,5497.06 8878.72,5499.58 8875.23,5501.32"/>
    </edge>
    <edge id=":1351640293_0" function="internal">
        <lane id=":1351640293_0_0" index="0" speed="13.89" length="10.08" shape="8869.43,5473.03 8870.55,5475.68 8871.91,5477.18 8873.66,5478.45 8875.90,5480.47"/>
    </edge>
    <edge id=":1351640293_1" function="internal">
        <lane id=":1351640293_1_0" index="0" speed="8.07" length="8.31" shape="8862.79,5481.14 8864.62,5478.90 8865.82,5476.95 8866.40,5475.29 8866.36,5473.92"/>
    </edge>
    <edge id=":1351640293_2" function="internal">
        <lane id=":1351640293_2_0" index="0" speed="8.04" length="15.26" shape="8862.79,5481.14 8866.13,5478.29 8869.43,5477.23 8872.68,5477.96 8875.90,5480.47"/>
    </edge>
    <edge id=":1435302922_0" function="internal">
        <lane id=":1435302922_0_0" index="0" speed="25.00" length="0.11" shape="11189.67,8886.08 11189.64,8885.98"/>
    </edge>
    <edge id=":1435302922_1" function="internal">
        <lane id=":1435302922_1_0" index="0" speed="25.00" length="0.32" shape="11192.63,8884.84 11192.73,8885.14"/>
    </edge>
    <edge id=":1451963875_0" function="internal">
        <lane id=":1451963875_0_0" index="0" speed="20.84" length="0.30" shape="10082.44,4811.27 10082.15,4811.30"/>
        <lane id=":1451963875_0_1" index="1" speed="20.84" length="0.30" shape="10082.07,4808.09 10081.77,4808.13"/>
    </edge>
    <edge id=":1451963875_2" function="internal">
        <lane id=":1451963875_2_0" index="0" speed="20.84" length="0.30" shape="10081.02,4801.77 10081.32,4801.74"/>
        <lane id=":1451963875_2_1" index="1" speed="20.84" length="0.30" shape="10081.39,4804.95 10081.69,4804.91"/>
    </edge>
    <edge id=":1451963884_0" function="internal">
        <lane id=":1451963884_0_0" index="0" speed="27.78" length="0.69" shape="10546.43,4751.60 10546.20,4751.66 10546.04,4751.69 10545.88,4751.72 10545.64,4751.76"/>
        <lane id=":1451963884_0_1" index="1" speed="27.78" length="0.69" shape="10545.68,4748.49 10545.51,4748.53 10545.40,4748.56 10545.28,4748.58 10545.12,4748.61"/>
    </edge>
    <edge id=":1451963884_2" function="internal">
        <lane id=":1451963884_2_0" index="0" speed="27.78" length="0.23" shape="10544.07,4742.29 10544.18,4742.27"/>
        <lane id=":1451963884_2_1" index="1" speed="27.78" length="0.23" shape="10544.59,4745.45 10544.93,4745.38"/>
    </edge>
    <edge id=":1451969073_0" function="internal">
        <lane id=":1451969073_0_0" index="0" speed="13.89" length="0.10" shape="9836.91,6927.45 9836.91,6927.45"/>
    </edge>
    <edge id=":1451969073_1" function="internal">
        <lane id=":1451969073_1_0" index="0" speed="13.89" length="0.10" shape="9839.67,6925.83 9839.67,6925.83"/>
    </edge>
    <edge id=":1470051279_0" function="internal">
        <lane id=":1470051279_0_0" index="0" speed="22.22" length="0.78" shape="9408.84,8586.04 9408.77,8586.26 9408.71,8586.41 9408.64,8586.55 9408.53,8586.76"/>
    </edge>
    <edge id=":1470051279_1" function="internal">
        <lane id=":1470051279_1_0" index="0" speed="22.22" length="0.26" shape="9405.70,8585.26 9405.74,8585.19 9405.76,8585.15 9405.78,8585.10 9405.81,8585.02"/>
    </edge>
    <edge id=":1470051284_0" function="internal">
        <lane id=":1470051284_0_0" index="0" speed="22.22" length="0.35" shape="9406.07,9689.41 9405.72,9689.35"/>
    </edge>
    <edge id=":1470051284_1" function="internal">
        <lane id=":1470051284_1_0" index="0" speed="22.22" length="0.12" shape="9406.35,9686.22 9406.47,9686.24"/>
    </edge>
    <edge id=":1470051288_0" function="internal">
        <lane id=":1470051288_0_0" index="0" speed="22.22" length="0.31" shape="9303.59,9328.75 9303.53,9329.06"/>
    </edge>
    <edge id=":1470051288_1" function="internal">
        <lane id=":1470051288_1_0" index="0" speed="22.22" length="0.28" shape="9300.39,9328.43 9300.45,9328.16"/>
    </edge>
    <edge id=":1470051289_0" function="internal">
        <lane id=":1470051289_0_0" index="0" speed="22.22" length="0.23" shape="9353.55,8861.78 9353.51,8862.01"/>
    </edge>
    <edge id=":1470051289_1" function="internal">
        <lane id=":1470051289_1_0" index="0" speed="22.22" length="0.31" shape="9350.35,8861.54 9350.40,8861.24"/>
    </edge>
    <edge id=":1470051295_0" function="internal">
        <lane id=":1470051295_0_0" index="0" speed="22.22" length="0.19" shape="9343.55,8929.78 9343.53,8929.97"/>
    </edge>
    <edge id=":1470051295_1" function="internal">
        <lane id=":1470051295_1_0" index="0" speed="22.22" length="0.30" shape="9340.35,8929.61 9340.38,8929.32"/>
    </edge>
    <edge id=":1470051329_0" function="internal">
        <lane id=":1470051329_0_0" index="0" speed="22.22" length="0.26" shape="9544.77,9707.00 9544.52,9706.97"/>
    </edge>
    <edge id=":1470051329_1" function="internal">
        <lane id=":1470051329_1_0" index="0" speed="22.22" length="0.31" shape="9544.92,9703.79 9545.23,9703.84"/>
    </edge>
    <edge id=":1470051340_0" function="internal">
        <lane id=":1470051340_0_0" index="0" speed="22.22" length="0.28" shape="10056.05,9706.78 10055.78,9706.86"/>
    </edge>
    <edge id=":1470051340_1" function="internal">
        <lane id=":1470051340_1_0" index="0" speed="22.22" length="0.31" shape="10054.84,9703.80 10055.14,9703.71"/>
    </edge>
    <edge id=":1470051349_0" function="internal">
        <lane id=":1470051349_0_0" index="0" speed="22.22" length="0.29" shape="9310.90,9290.08 9310.85,9290.37"/>
    </edge>
    <edge id=":1470051349_1" function="internal">
        <lane id=":1470051349_1_0" index="0" speed="22.22" length="0.17" shape="9307.71,9289.78 9307.74,9289.61"/>
    </edge>
    <edge id=":1470051368_0" function="internal">
        <lane id=":1470051368_0_0" index="0" speed="22.22" length="0.31" shape="9658.27,9723.41 9657.96,9723.36"/>
    </edge>
    <edge id=":1470051368_1" function="internal">
        <lane id=":1470051368_1_0" index="0" speed="22.22" length="0.27" shape="9658.41,9720.20 9658.68,9720.23"/>
    </edge>
    <edge id=":1476119008_0" function="internal">
        <lane id=":1476119008_0_0" index="0" speed="25.00" length="0.30" shape="10698.12,8256.05 10697.93,8255.82"/>
    </edge>
    <edge id=":1476119008_1" function="internal">
        <lane id=":1476119008_1_0" index="0" speed="25.00" length="0.30" shape="10700.38,8253.77 10700.57,8254.00"/>
    </edge>
    <edge id=":1476119020_0" function="internal">
        <lane id=":1476119020_0_0" index="0" speed="22.22" length="0.86" shape="9472.32,8300.78 9472.33,8301.04 9472.34,8301.21 9472.32,8301.39 9472.29,8301.64"/>
    </edge>
    <edge id=":1476119020_1" function="internal">
        <lane id=":1476119020_1_0" index="0" speed="22.22" length="0.29" shape="9469.12,8301.25 9469.13,8301.16 9469.13,8301.11 9469.13,8301.05 9469.13,8300.96"/>
    </edge>
    <edge id=":1697756513_0" function="internal">
        <lane id=":1697756513_0_0" index="0" speed="11.11" length="0.31" shape="9267.35,6047.92 9267.17,6047.67"/>
    </edge>
    <edge id=":1697756513_1" function="internal">
        <lane id=":1697756513_1_0" index="0" speed="11.11" length="0.25" shape="9269.76,6045.80 9269.92,6046.00"/>
    </edge>
    <edge id=":1702515197_0" function="internal">
        <lane id=":1702515197_0_0" index="0" speed="13.89" length="0.18" shape="9534.06,4758.51 9534.05,4758.46 9534.04,4758.43 9534.03,4758.39 9534.02,4758.34"/>
    </edge>
    <edge id=":1702515197_1" function="internal">
        <lane id=":1702515197_1_0" index="0" speed="13.89" length="0.55" shape="9537.05,4757.32 9537.10,4757.47 9537.13,4757.58 9537.16,4757.68 9537.19,4757.84"/>
    </edge>
    <edge id=":1702515390_0" function="internal">
        <lane id=":1702515390_0_0" index="0" speed="6.44" length="9.03" shape="7830.04,6583.49 7828.44,6581.59 7826.63,6580.67 7824.60,6580.74 7822.35,6581.80"/>
    </edge>
    <edge id=":1702515390_1" function="internal">
        <lane id=":1702515390_1_0" index="0" speed="8.29" length="14.15" shape="7830.04,6583.49 7828.44,6579.92 7828.25,6576.65 7829.46,6573.67 7832.07,6570.99"/>
    </edge>
    <edge id=":1702515390_2" function="internal">
        <lane id=":1702515390_2_0" index="0" speed="6.85" length="9.35" shape="7834.02,6573.53 7832.31,6575.29 7831.54,6577.26 7831.68,6579.43 7832.76,6581.81"/>
    </edge>
    <edge id=":1702515390_3" function="internal">
        <lane id=":1702515390_3_0" index="0" speed="20.84" length="14.30" shape="7834.02,6573.53 7822.35,6581.80"/>
    </edge>
    <edge id=":1702515390_4" function="internal">
        <lane id=":1702515390_4_0" index="0" speed="20.84" length="14.08" shape="7820.59,6579.13 7832.07,6570.99"/>
    </edge>
    <edge id=":1702515390_5" function="internal">
        <lane id=":1702515390_5_0" index="0" speed="7.95" length="5.59" shape="7820.59,6579.13 7824.15,6577.45 7825.80,6577.39"/>
    </edge>
    <edge id=":1702515390_6" function="internal">
        <lane id=":1702515390_6_0" index="0" speed="7.95" length="8.71" shape="7825.80,6577.39 7827.36,6577.34 7830.23,6578.79 7832.76,6581.81"/>
    </edge>
    <edge id=":1702577750_0" function="internal">
        <lane id=":1702577750_0_0" index="0" speed="6.17" length="9.05" shape="8634.28,6116.10 8633.06,6113.87 8631.46,6112.70 8629.48,6112.59 8627.12,6113.54"/>
    </edge>
    <edge id=":1702577750_1" function="internal">
        <lane id=":1702577750_1_0" index="0" speed="8.52" length="14.53" shape="8634.28,6116.10 8633.32,6112.09 8633.67,6108.67 8635.31,6105.84 8638.26,6103.60"/>
    </edge>
    <edge id=":1702577750_2" function="internal">
        <lane id=":1702577750_2_0" index="0" speed="7.13" length="9.87" shape="8639.78,6106.42 8637.84,6107.91 8636.78,6109.84 8636.59,6112.20 8637.28,6114.98"/>
    </edge>
    <edge id=":1702577750_3" function="internal">
        <lane id=":1702577750_3_0" index="0" speed="13.89" length="14.53" shape="8639.78,6106.42 8627.12,6113.54"/>
    </edge>
    <edge id=":1702577750_4" function="internal">
        <lane id=":1702577750_4_0" index="0" speed="6.59" length="9.80" shape="8630.04,6101.56 8631.44,6103.64 8633.27,6104.68 8635.54,6104.67 8638.26,6103.60"/>
    </edge>
    <edge id=":1702577750_5" function="internal">
        <lane id=":1702577750_5_0" index="0" speed="13.89" length="15.24" shape="8630.04,6101.56 8637.28,6114.98"/>
    </edge>
    <edge id=":1702577750_6" function="internal">
        <lane id=":1702577750_6_0" index="0" speed="8.19" length="13.74" shape="8630.04,6101.56 8631.23,6105.36 8631.15,6108.63 8629.77,6111.35 8627.12,6113.54"/>
    </edge>
    <edge id=":1702577750_7" function="internal">
        <lane id=":1702577750_7_0" index="0" speed="13.89" length="14.62" shape="8625.51,6110.77 8638.26,6103.60"/>
    </edge>
    <edge id=":1702577750_8" function="internal">
        <lane id=":1702577750_8_0" index="0" speed="7.73" length="6.15" shape="8625.51,6110.77 8629.39,6109.21 8631.36,6109.32"/>
    </edge>
    <edge id=":1702577750_9" function="internal">
        <lane id=":1702577750_9_0" index="0" speed="7.73" length="8.72" shape="8631.36,6109.32 8632.64,6109.39 8635.27,6111.31 8637.28,6114.98"/>
    </edge>
    <edge id=":1787431661_0" function="internal">
        <lane id=":1787431661_0_0" index="0" speed="22.22" length="0.31" shape="10088.90,9697.00 10088.61,9697.09"/>
    </edge>
    <edge id=":1787431661_1" function="internal">
        <lane id=":1787431661_1_0" index="0" speed="22.22" length="0.23" shape="10087.70,9694.02 10087.91,9693.96"/>
    </edge>
    <edge id=":2018220184_0" function="internal">
        <lane id=":2018220184_0_0" index="0" speed="13.89" length="9.54" shape="7727.62,4036.12 7726.77,4038.74 7726.72,4040.66 7727.06,4042.65 7727.39,4045.48"/>
    </edge>
    <edge id=":2018220184_1" function="internal">
        <lane id=":2018220184_1_0" index="0" speed="10.55" length="9.39" shape="7717.08,4039.61 7719.75,4038.68 7721.75,4038.09 7723.32,4037.07 7724.69,4034.85"/>
    </edge>
    <edge id=":2018220184_2" function="internal">
        <lane id=":2018220184_2_0" index="0" speed="7.34" length="15.08" shape="7717.08,4039.61 7721.40,4038.35 7724.56,4038.91 7726.55,4041.29 7727.39,4045.48"/>
    </edge>
    <edge id=":2018220196_0" function="internal">
        <lane id=":2018220196_0_0" index="0" speed="11.61" length="10.03" shape="7729.46,4055.99 7726.99,4054.58 7725.00,4054.26 7722.85,4054.52 7719.86,4054.86"/>
    </edge>
    <edge id=":2018220196_1" function="internal">
        <lane id=":2018220196_1_0" index="0" speed="8.96" length="8.71" shape="7727.40,4045.68 7727.72,4048.05 7728.45,4050.09 7729.58,4051.82 7731.11,4053.24"/>
    </edge>
    <edge id=":2018220196_2" function="internal">
        <lane id=":2018220196_2_0" index="0" speed="7.84" length="13.51" shape="7727.40,4045.68 7727.09,4049.53 7725.73,4052.34 7723.32,4054.11 7719.86,4054.86"/>
    </edge>
    <edge id=":2018220226_0" function="internal">
        <lane id=":2018220226_0_0" index="0" speed="13.89" length="13.71" shape="7779.56,4091.33 7776.83,4089.06 7774.22,4087.03 7771.52,4085.12 7768.54,4083.20"/>
    </edge>
    <edge id=":2018220226_1" function="internal">
        <lane id=":2018220226_1_0" index="0" speed="7.87" length="5.68" shape="7779.56,4091.33 7776.91,4088.31 7776.42,4086.72"/>
    </edge>
    <edge id=":2018220226_6" function="internal">
        <lane id=":2018220226_6_0" index="0" speed="7.87" length="8.80" shape="7776.42,4086.72 7775.95,4085.23 7776.67,4082.08 7779.07,4078.86"/>
    </edge>
    <edge id=":2018220226_2" function="internal">
        <lane id=":2018220226_2_0" index="0" speed="6.35" length="9.04" shape="7781.33,4081.12 7779.84,4083.13 7779.39,4085.09 7779.99,4087.02 7781.64,4088.90"/>
    </edge>
    <edge id=":2018220226_3" function="internal">
        <lane id=":2018220226_3_0" index="0" speed="8.75" length="14.14" shape="7781.33,4081.12 7778.22,4083.57 7775.06,4084.73 7771.83,4084.61 7768.54,4083.20"/>
    </edge>
    <edge id=":2018220226_4" function="internal">
        <lane id=":2018220226_4_0" index="0" speed="7.38" length="9.80" shape="7770.22,4080.48 7772.45,4081.41 7774.67,4081.46 7776.88,4080.61 7779.07,4078.86"/>
    </edge>
    <edge id=":2018220226_5" function="internal">
        <lane id=":2018220226_5_0" index="0" speed="13.89" length="14.21" shape="7770.22,4080.48 7773.26,4082.44 7776.10,4084.45 7778.85,4086.58 7781.64,4088.90"/>
    </edge>
    <edge id=":2018220414_0" function="internal">
        <lane id=":2018220414_0_0" index="0" speed="7.91" length="9.33" shape="7891.40,4303.13 7892.54,4304.94 7894.21,4306.24 7896.40,4307.06 7899.12,4307.37"/>
    </edge>
    <edge id=":2018220414_1" function="internal">
        <lane id=":2018220414_1_0" index="0" speed="9.08" length="9.35" shape="7886.69,4313.27 7887.99,4310.62 7888.72,4308.26 7888.88,4306.18 7888.46,4304.39"/>
    </edge>
    <edge id=":2018220414_2" function="internal">
        <lane id=":2018220414_2_0" index="0" speed="10.11" length="14.47" shape="7886.69,4313.27 7888.77,4310.61 7891.54,4308.74 7894.98,4307.66 7899.12,4307.37"/>
    </edge>
    <edge id=":2018220424_0" function="internal">
        <lane id=":2018220424_0_0" index="0" speed="8.46" length="9.50" shape="7915.47,4313.03 7913.63,4314.53 7912.35,4316.38 7911.61,4318.58 7911.43,4321.13"/>
    </edge>
    <edge id=":2018220424_1" function="internal">
        <lane id=":2018220424_1_0" index="0" speed="7.45" length="9.18" shape="7905.27,4309.50 7907.40,4310.86 7909.52,4311.45 7911.64,4311.27 7913.76,4310.32"/>
    </edge>
    <edge id=":2018220424_2" function="internal">
        <lane id=":2018220424_2_0" index="0" speed="11.44" length="13.57" shape="7905.27,4309.50 7907.88,4312.05 7909.78,4314.84 7910.96,4317.87 7911.43,4321.13"/>
    </edge>
    <edge id=":2018220437_0" function="internal">
        <lane id=":2018220437_0_0" index="0" speed="9.58" length="9.85" shape="7889.40,4331.35 7887.01,4329.85 7884.68,4328.93 7882.41,4328.60 7880.20,4328.85"/>
    </edge>
    <edge id=":2018220437_1" function="internal">
        <lane id=":2018220437_1_0" index="0" speed="10.63" length="13.96" shape="7889.40,4331.35 7887.21,4329.16 7885.69,4326.34 7884.84,4322.88 7884.66,4318.79"/>
    </edge>
    <edge id=":2018220437_2" function="internal">
        <lane id=":2018220437_2_0" index="0" speed="7.40" length="9.42" shape="7879.42,4325.74 7881.64,4324.84 7883.25,4323.38 7884.26,4321.36 7884.66,4318.79"/>
    </edge>
    <edge id=":2018220455_0" function="internal">
        <lane id=":2018220455_0_0" index="0" speed="9.19" length="9.64" shape="7905.36,4338.59 7904.02,4336.95 7902.20,4335.69 7899.90,4334.80 7897.11,4334.29"/>
    </edge>
    <edge id=":2018220455_1" function="internal">
        <lane id=":2018220455_1_0" index="0" speed="7.92" length="9.19" shape="7909.23,4328.33 7907.92,4330.73 7907.29,4332.97 7907.35,4335.04 7908.10,4336.95"/>
    </edge>
    <edge id=":2018220455_2" function="internal">
        <lane id=":2018220455_2_0" index="0" speed="9.96" length="14.25" shape="7909.23,4328.33 7906.78,4331.24 7903.93,4333.21 7900.71,4334.22 7897.11,4334.29"/>
    </edge>
    <edge id=":2018220546_0" function="internal">
        <lane id=":2018220546_0_0" index="0" speed="13.89" length="0.20" shape="8179.42,4832.22 8179.40,4832.16 8179.38,4832.12 8179.36,4832.09 8179.33,4832.03"/>
    </edge>
    <edge id=":2018220546_1" function="internal">
        <lane id=":2018220546_1_0" index="0" speed="13.89" length="0.61" shape="8182.10,4830.43 8182.19,4830.59 8182.25,4830.70 8182.30,4830.81 8182.37,4830.98"/>
    </edge>
    <edge id=":2018220634_0" function="internal">
        <lane id=":2018220634_0_0" index="0" speed="13.89" length="4.14" shape="8318.09,5173.21 8317.91,5172.00 8317.76,5171.17 8317.52,5170.36 8317.06,5169.22"/>
    </edge>
    <edge id=":2018220634_1" function="internal">
        <lane id=":2018220634_1_0" index="0" speed="5.05" length="4.04" shape="8318.09,5173.21 8318.00,5170.69 8318.74,5169.91 8319.12,5170.15"/>
    </edge>
    <edge id=":2018220634_3" function="internal">
        <lane id=":2018220634_3_0" index="0" speed="5.05" length="5.01" shape="8319.12,5170.15 8320.30,5170.88 8322.70,5173.59"/>
    </edge>
    <edge id=":2018220634_2" function="internal">
        <lane id=":2018220634_2_0" index="0" speed="13.89" length="6.26" shape="8320.01,5167.98 8320.67,5169.73 8321.09,5170.95 8321.64,5172.09 8322.70,5173.59"/>
    </edge>
    <edge id=":2018220655_0" function="internal">
        <lane id=":2018220655_0_0" index="0" speed="13.89" length="0.90" shape="8296.40,5207.27 8296.15,5207.36 8295.97,5207.42 8295.80,5207.47 8295.54,5207.54"/>
    </edge>
    <edge id=":2018220655_1" function="internal">
        <lane id=":2018220655_1_0" index="0" speed="13.89" length="0.30" shape="8294.82,5204.42 8294.91,5204.40 8294.97,5204.38 8295.03,5204.36 8295.11,5204.32"/>
    </edge>
    <edge id=":2020139872_0" function="internal">
        <lane id=":2020139872_0_0" index="0" speed="13.89" length="0.31" shape="8150.00,4781.18 8149.84,4780.91"/>
    </edge>
    <edge id=":2020139872_1" function="internal">
        <lane id=":2020139872_1_0" index="0" speed="13.89" length="0.26" shape="8152.64,4779.36 8152.77,4779.59"/>
    </edge>
    <edge id=":2062224863_0" function="internal">
        <lane id=":2062224863_0_0" index="0" speed="13.89" length="0.30" shape="8856.76,5539.39 8856.70,5539.68"/>
    </edge>
    <edge id=":2062224863_1" function="internal">
        <lane id=":2062224863_1_0" index="0" speed="13.89" length="0.30" shape="8853.58,5538.99 8853.64,5538.69"/>
    </edge>
    <edge id=":2062225014_0" function="internal">
        <lane id=":2062225014_0_0" index="0" speed="13.89" length="15.24" shape="8890.65,5705.21 8889.06,5701.78 8887.60,5698.23 8886.30,5694.63 8885.14,5691.02"/>
    </edge>
    <edge id=":2062225014_1" function="internal">
        <lane id=":2062225014_1_0" index="0" speed="8.20" length="6.14" shape="8890.65,5705.21 8889.49,5701.53 8889.75,5699.27"/>
    </edge>
    <edge id=":2062225014_6" function="internal">
        <lane id=":2062225014_6_0" index="0" speed="8.20" length="8.58" shape="8889.75,5699.27 8889.86,5698.27 8891.75,5695.45 8895.17,5693.06"/>
    </edge>
    <edge id=":2062225014_2" function="internal">
        <lane id=":2062225014_2_0" index="0" speed="6.75" length="9.64" shape="8896.65,5695.89 8894.36,5697.48 8893.07,5699.33 8892.79,5701.43 8893.52,5703.80"/>
    </edge>
    <edge id=":2062225014_3" function="internal">
        <lane id=":2062225014_3_0" index="0" speed="7.70" length="14.97" shape="8896.65,5695.89 8892.67,5697.29 8889.42,5696.94 8886.92,5694.85 8885.14,5691.02"/>
    </edge>
    <edge id=":2062225014_4" function="internal">
        <lane id=":2062225014_4_0" index="0" speed="6.13" length="9.06" shape="8888.21,5690.11 8889.28,5692.43 8890.80,5693.69 8892.76,5693.90 8895.17,5693.06"/>
    </edge>
    <edge id=":2062225014_5" function="internal">
        <lane id=":2062225014_5_0" index="0" speed="13.89" length="14.70" shape="8888.21,5690.11 8889.33,5693.64 8890.57,5697.07 8891.96,5700.44 8893.52,5703.80"/>
    </edge>
    <edge id=":2062225108_0" function="internal">
        <lane id=":2062225108_0_0" index="0" speed="13.89" length="0.26" shape="8907.15,5792.16 8907.11,5791.90"/>
    </edge>
    <edge id=":2062225108_1" function="internal">
        <lane id=":2062225108_1_0" index="0" speed="13.89" length="0.31" shape="8910.26,5791.34 8910.31,5791.65"/>
    </edge>
    <edge id=":2062225196_0" function="internal">
        <lane id=":2062225196_0_0" index="0" speed="13.89" length="0.30" shape="8921.41,5883.01 8921.37,5882.71"/>
    </edge>
    <edge id=":2062225196_1" function="internal">
        <lane id=":2062225196_1_0" index="0" speed="13.89" length="0.30" shape="8924.53,5882.24 8924.57,5882.53"/>
    </edge>
    <edge id=":2062225427_0" function="internal">